simulator lang=spectre
include "nmos_rvt.scs"
include "pmos_rvt.scs"
